480
 Atoms. Timestep: 200000
Te         18.63       0.486811       18.2137
Te         19.0967       16.9247       12.795
Te         4.40885       2.70806       16.7481
Te         18.7224       7.92818       3.19887
Te         16.9753       1.01767       4.65075
Te         2.36685       4.18701       6.9039
Te         4.52666       11.849       1.55163
Te         1.05313       12.7819       19.7758
Te         3.28514       13.3383       5.0675
Te         8.26825       19.0491       13.5339
Te         4.80182       16.6738       12.1009
Te         4.40043       4.1303       0.411068
Te         4.14096       20.7131       6.31495
Te         6.63484       6.12114       13.3846
Te         1.458       10.0063       4.89461
Te         20.2751       6.63579       7.21755
Te         2.27607       11.1075       12.5945
Te         5.87309       18.6725       17.1344
Te         10.1772       17.2251       4.51499
Te         15.4415       19.9387       15.7431
Te         6.81299       13.7265       6.26963
Te         10.8755       4.56491       14.5192
Te         11.5293       1.14157       15.3748
Te         13.0977       0.113447       5.64795
Te         9.58841       8.17651       13.6447
Te         7.96604       11.0426       19.3088
Te         10.7221       7.47537       6.84177
Te         13.6188       16.0521       14.1427
Te         2.35823       9.02555       8.9415
Te         5.83656       9.96963       13.1422
Te         12.5654       5.96884       17.8614
Te         17.6785       1.90444       11.1613
Te         17.2118       2.36648       15.1529
Te         19.1822       8.31048       20.5903
Te         17.0873       5.55532       5.51907
Te         1.79433       10.9748       16.7745
Te         18.6783       12.3683       5.39186
Te         13.888       13.3277       17.9149
Te         11.506       2.09763       19.8903
Te         13.9566       11.3145       8.00213
Te         17.5421       12.0266       17.9479
Te         12.2762       19.6362       9.05432
Te         3.86027       0.119269       0.0442035
Te         3.6822       13.8217       9.43638
Te         5.64242       9.98126       17.143
Te         8.37036       17.0913       19.5511
Te         10.7304       16.2001       12.1935
Te         10.6157       14.0136       19.2879
Te         10.2467       20.784       2.82234
Te         4.82119       17.9642       1.8397
Te         15.4159       9.1449       18.8193
Te         12.7186       6.37709       9.49855
Te         13.1131       5.51921       0.852749
Te         13.8435       3.1518       10.8025
Te         9.66789       11.3505       15.2918
Te         15.3105       15.5521       9.74995
Te         14.2108       15.9004       20.2388
Te         8.96058       15.9712       7.66961
Te         13.4445       9.32665       15.6932
Te         14.0908       11.6528       0.558454
Te         15.4746       10.3465       11.359
Te         18.2051       12.3982       10.3743
Te         15.4687       14.9327       2.54984
Te         9.47955       12.9832       3.05299
Te         19.5877       20.6637       13.415
Te         20.187       18.555       9.96678
Te         1.40544       18.383       2.1433
Te         0.586261       20.1977       5.40925
Te         3.96492       3.75765       12.6467
Te         1.41259       14.7119       2.15517
Te         4.49539       5.78834       9.39823
Te         19.8248       12.9536       15.0428
Te         16.2196       13.9065       13.2128
Te         1.00373       17.4151       15.2871
Te         16.1872       2.6158       7.93327
Te         2.40805       16.4104       6.13612
Te         0.119412       3.58159       15.0904
Te         14.8996       3.21406       17.7733
Te         5.42382       1.24481       9.0111
Te         2.00132       6.4294       3.41259
Te         7.95991       20.046       6.13941
Te         2.89427       17.2972       18.5953
Te         0.672698       12.2296       7.74767
Te         3.35428       15.0267       15.1616
Te         0.92201       2.12147       19.1214
Te         3.34529       18.4231       9.03598
Te         1.78785       5.58649       18.7677
Te         6.93506       1.63609       2.76864
Te         7.56656       1.44714       15.3636
Te         9.88136       4.7561       2.95823
Te         6.09348       11.2745       8.87731
Te         11.7145       9.61011       10.7427
Te         11.2018       17.4436       1.24047
Te         9.85242       13.0575       10.1811
Te         7.69593       20.4993       20.0435
Te         7.07225       13.5392       12.3793
Te         7.05529       14.039       16.0873
Te         8.26548       2.01019       11.7155
Te         14.5279       7.12354       13.1402
Te         12.3903       4.91313       4.99314
Te         10.2698       1.6205       7.71434
Te         7.99797       6.15559       17.9341
Te         15.0438       18.4841       3.38134
Te         15.6606       11.2467       4.23261
Te         12.6367       11.9603       13.2368
Te         11.121       18.8152       17.6932
Te         18.1207       19.429       7.2257
Te         7.91895       18.2715       10.2782
Te         11.1228       9.69761       1.90582
Te         20.465       2.65166       4.63551
Te         16.3825       6.66842       8.86648
Te         18.1544       9.77466       13.824
Te         4.66197       6.28044       16.2431
Te         19.4963       15.3187       8.56828
Te         16.2551       19.2468       10.4975
Te         18.5951       17.171       3.23997
Te         16.6983       16.0118       16.1558
Te         7.65214       3.45233       20.0019
Te         7.49745       8.06667       9.39395
Te         18.2509       9.35553       7.83284
Te         5.63487       7.75097       20.4771
Te         0.626639       7.70775       15.6773
Te         20.3684       11.4227       2.24548
Te         0.792899       14.4898       11.7772
Te         4.29335       13.8953       18.6454
Te         6.01325       16.9481       5.04116
Te         4.75906       19.8914       13.5504
Te         2.12269       0.321512       15.1686
Te         2.99566       2.25164       3.30115
Te         8.44758       4.64769       9.37843
Te         2.89229       7.30856       12.7423
Te         6.77203       3.75414       6.25346
Te         4.74442       8.98554       6.36652
Te         10.2637       11.3016       7.01921
Te         2.11634       8.45581       0.282562
Te         12.7918       13.8312       4.81909
Te         11.3071       9.21342       18.6531
Te         16.4108       3.62001       0.631183
Te         12.5352       15.9124       7.78736
Te         5.87938       6.45611       3.55029
Te         6.83289       14.8755       1.33405
Te         17.7147       5.97253       12.3915
Te         15.3923       8.19182       1.81931
Te         7.17892       10.1028       3.8736
Te         8.80232       7.32837       1.11446
Te         13.6803       0.67       1.24811
Te         10.1654       15.8651       15.7258
Te         12.871       19.8188       12.6005
Te         20.1243       0.0452958       1.06467
Te         1.88188       0.7858       10.8969
Te         18.0506       6.70407       17.4375
Te         19.8967       4.43366       1.52191
Te         0.145009       4.44001       11.267
Te         15.4488       19.5134       19.3358
Te         13.9222       8.08614       5.70127
Te         20.4728       8.72621       11.3351
Te         18.5249       14.6189       0.14831
Te         16.5206       15.8066       6.07041
Te         20.4441       1.9521       8.40899
Te         18.8074       17.7386       18.327
O         11.9789       11.0615       7.96194
O         1.38324       15.4015       15.1347
O         0.600483       1.71476       14.5166
O         6.52504       6.66488       10.4478
O         19.8317       14.7259       12.8026
O         14.5046       16.4107       1.71689
O         13.3619       15.2752       9.67939
O         6.33885       9.66671       10.108
O         0.090542       13.5249       3.07966
O         12.5159       17.9565       13.0392
O         5.52809       18.529       3.63752
O         11.5663       0.211066       1.31304
O         10.187       3.14915       20.6992
O         11.3459       0.128865       13.7561
O         15.9831       13.206       18.3585
O         20.6775       14.4939       7.40221
O         12.0987       14.9713       13.1172
O         5.40205       13.489       0.82256
O         0.0734483       11.9445       16.5545
O         5.4865       1.27167       15.815
O         8.01559       12.6506       10.8035
O         13.9039       0.0536538       20.1846
O         9.31633       9.86009       18.4691
O         19.9356       10.1034       12.7908
O         11.7379       7.94169       8.40812
O         8.67558       16.1564       4.38807
O         14.2567       19.5731       10.8547
O         19.238       5.46826       10.8866
O         9.7061       1.66964       14.9458
O         8.12613       12.2204       4.23917
O         12.726       10.0722       12.3779
O         20.1563       0.289311       11.7064
O         1.23247       9.01962       17.0221
O         16.7007       0.100814       18.5758
O         18.4657       15.941       19.4315
O         10.1151       15.5779       18.2104
O         18.3457       16.3509       1.46199
O         17.6902       15.6052       4.1456
O         17.3107       0.341832       6.59038
O         3.48397       1.63592       17.9521
O         1.11482       3.79746       17.9234
O         3.51405       12.877       2.85691
O         18.4516       11.5698       14.753
O         5.73084       11.8648       12.5838
O         5.90373       20.3527       8.19152
O         16.5881       14.3706       0.383643
O         9.6598       16.4465       0.587254
O         4.30099       8.87044       0.535292
O         5.50125       10.5388       14.9876
O         18.3728       17.0286       16.5024
O         2.39493       16.895       8.05177
O         13.6561       6.2959       4.38737
O         14.187       5.01491       17.2401
O         7.78842       6.44656       19.8106
O         19.9905       16.9649       14.4967
O         1.1587       8.18117       3.97339
O         3.89697       6.7758       4.18655
O         15.2017       8.85765       13.7487
O         7.27066       2.0537       13.5195
O         1.23721       10.7528       3.10009
O         8.00965       6.37153       2.73365
O         18.0299       13.2711       8.65506
O         14.0838       17.7799       19.7915
O         5.94507       14.1352       14.4309
O         16.3503       11.4707       9.93282
O         18.7105       12.5951       19.3149
O         13.261       4.90468       10.9512
O         7.59964       1.80263       19.0316
O         1.38276       1.1421       8.90267
O         0.526609       16.4481       2.41051
O         16.1648       6.05527       13.7618
O         15.523       1.07789       15.4873
O         11.1991       12.6381       4.85005
O         19.1845       19.6419       17.3652
O         3.01419       8.15079       7.27675
O         7.16647       19.9278       18.1865
O         7.973       2.68483       3.84932
O         8.45805       4.2392       7.08612
O         8.35238       16.3467       9.53152
O         12.7808       2.03134       9.71253
O         9.57961       6.18292       13.6888
O         3.0907       2.77174       15.2992
O         19.1709       10.0519       9.3983
O         0.327755       14.3579       0.338964
O         19.5858       11.5542       6.90892
O         2.88921       13.0685       20.4618
O         11.2286       16.2926       2.85539
O         12.1006       5.99729       6.80266
O         5.35627       16.0773       2.21736
O         12.1549       2.895       14.5197
O         12.4153       16.204       15.7409
O         3.09541       17.2703       2.50167
O         13.8455       15.24       18.2243
O         15.057       19.9587       4.64081
O         4.50849       10.3945       7.78072
O         14.648       10.1476       17.0302
O         15.4665       17.44       9.97079
O         16.5983       3.53587       16.7451
O         18.9874       5.87323       5.74332
O         19.9957       9.4006       1.87674
O         19.1763       19.5214       5.45412
O         13.415       7.40225       1.3845
O         0.773411       12.6404       12.7744
O         7.20108       11.4424       17.5735
O         2.14233       2.63978       11.3485
O         16.1901       8.37766       0.0735933
O         14.2382       12.2968       5.17335
O         15.9064       3.62533       19.3651
O         4.02448       15.8028       19.3366
O         9.99427       18.8704       2.14305
O         3.60589       16.7887       15.8817
O         17.2494       9.15582       2.89213
O         15.9997       0.974516       11.0121
O         0.533317       11.2754       0.249627
O         14.3164       8.96001       4.10225
O         2.37044       6.92174       1.53288
O         1.03357       18.6744       4.02828
O         2.58974       14.9666       4.12656
O         1.51003       5.81115       6.13718
O         8.15243       13.3749       1.60647
O         17.7303       2.28718       9.07991
O         3.93187       1.46328       7.37435
O         1.86745       19.1782       10.0684
O         5.89341       20.7139       0.0187755
O         11.5848       19.9614       10.9648
O         11.9483       8.56977       5.60862
O         6.40712       5.50679       5.27346
O         13.0027       2.38466       0.479222
O         14.6569       14.2363       14.6658
O         6.5218       0.155135       5.22852
O         1.26123       10.1318       7.72493
O         17.0378       10.2563       19.0411
O         6.07728       11.1201       2.53907
O         12.33       15.8726       20.67
O         16.9452       4.32285       7.31593
O         20.5464       1.39113       6.45978
O         8.25679       4.23199       18.0676
O         18.0361       4.05856       2.03176
O         2.24223       17.8036       20.2244
O         6.19151       8.21831       4.27781
O         5.24052       13.8477       4.83953
O         2.52251       0.0871819       5.06866
O         10.809       15.3518       8.56134
O         9.95548       17.7344       16.298
O         0.682768       3.61102       7.57772
O         0.141156       0.752075       3.92259
O         16.7493       12.7034       3.50523
O         13.434       11.3078       14.9691
O         3.3809       5.40017       17.565
O         7.79626       20.0185       11.8692
O         18.6846       7.34199       8.31224
O         5.76932       4.01096       19.5649
O         20.4072       5.69839       3.03431
O         3.27214       14.6876       6.6982
O         9.40954       8.70329       2.43298
O         0.557031       7.40708       12.5222
O         11.7934       1.49814       6.41651
O         20.5614       2.84437       2.45004
O         6.03657       5.88729       17.7096
O         16.6436       8.6208       9.00811
O         2.73488       12.5797       8.30154
O         13.8515       10.4589       9.75509
O         7.20673       15.5973       20.3562
O         3.42482       10.134       5.00555
O         2.96716       4.09723       2.5783
O         9.61066       14.6363       11.9032
O         13.7069       13.2184       19.8672
O         12.5032       3.07257       18.527
O         6.48737       17.0702       17.9844
O         11.9556       20.1251       4.25179
O         16.3125       17.6818       5.8278
O         8.93814       12.8685       19.2864
O         10.6391       5.80748       4.54605
O         15.8344       2.25509       5.29753
O         15.2145       15.2969       12.1754
O         8.74684       1.29694       6.50353
O         3.8184       18.4336       12.6504
O         10.338       4.6024       16.3214
O         17.3129       15.5689       14.2762
O         14.3413       9.91109       6.84133
O         18.381       7.71932       12.8459
O         20.7372       17.2553       11.6181
O         4.62998       2.32377       4.20807
O         15.0197       5.02383       1.16611
O         2.68606       4.34212       20.2047
O         6.84737       8.31058       1.18432
O         3.93891       0.446285       10.1703
O         7.98744       15.6906       15.6827
O         0.262159       7.58705       20.4394
O         4.863       4.38561       10.9438
O         0.440514       17.5672       17.0887
O         13.1962       7.76522       17.5075
O         8.88968       2.65253       9.49852
O         1.67667       10.4241       14.352
O         15.6151       2.01937       1.26926
O         13.3748       6.03318       19.77
O         3.8666       19.8761       1.75892
O         5.06759       7.3617       13.3299
O         2.52043       7.55757       14.7095
O         4.22089       11.1141       17.7388
O         19.0921       7.92154       16.4377
O         4.32196       18.9408       18.3404
O         16.4737       6.84562       11.0214
O         2.85432       19.5809       7.41565
O         18.311       17.9372       10.0435
O         20.1511       18.8634       1.77666
O         7.41963       18.429       20.7741
O         2.63545       13.4278       10.9472
O         14.4805       7.06584       8.95248
O         5.72209       13.1085       7.67609
O         18.6245       7.09351       1.32784
O         20.1868       8.37287       6.51105
O         14.839       10.1778       1.91531
O         6.09437       10.5272       5.51302
O         18.5927       13.7476       16.3883
O         6.64733       7.8537       7.70282
O         3.9281       9.64949       12.6097
O         8.4736       0.750446       1.89211
O         4.82965       11.9885       10.0488
O         0.857466       7.78169       9.43529
O         8.5713       10.0485       14.4821
O         2.69677       13.911       17.5446
O         13.7869       19.7604       14.7632
O         6.08578       17.8038       10.5363
O         0.00375411       17.0599       8.75768
O         17.0961       11.2258       5.88205
O         5.20348       4.50276       13.9907
O         17.2159       6.58243       3.72875
O         16.5261       7.8878       17.267
O         13.112       6.77522       14.4155
O         12.8863       19.2577       6.7693
O         2.70928       5.29054       12.8432
O         15.3221       15.7552       7.71768
O         20.0303       2.52709       20.2007
O         9.81796       16.6969       13.858
O         19.6906       20.112       8.36657
O         3.91664       1.72254       1.19025
O         8.48135       12.8526       14.7506
O         7.75565       7.99402       13.0816
O         2.87304       7.53963       19.606
O         10.4212       6.04173       1.5182
O         6.78858       6.39734       15.2863
O         14.0628       10.6547       19.6234
O         16.8101       3.41128       11.8124
O         9.82999       11.3043       2.15413
O         4.03352       19.4897       15.2637
O         9.98804       5.65899       9.64808
O         9.86602       19.0405       19.1675
O         0.721763       6.16939       16.7739
O         16.1954       19.9344       8.69988
O         20.5671       13.7193       10.2068
O         1.19599       12.2818       5.85094
O         6.49088       15.6417       6.80912
O         1.14504       11.0118       18.6945
O         14.4604       19.5423       17.4947
O         11.2381       16.2328       5.94083
O         18.5446       2.25654       4.56292
O         18.305       0.997457       16.1602
O         6.61044       1.50749       10.7763
O         18.4904       19.0213       12.903
O         3.01259       0.394579       13.327
O         11.7028       9.78317       16.6477
O         10.8268       9.13454       0.070291
O         12.7329       7.75366       10.9705
O         6.39736       9.44572       19.2816
O         11.0503       11.8867       11.0927
O         0.902996       19.7476       14.6412
O         16.8727       18.0583       18.6932
O         3.46626       16.555       10.6138
O         10.7021       7.34751       18.5128
O         4.22828       17.3292       5.96926
O         14.9854       3.76323       9.16266
O         4.49667       8.17602       16.7449
O         6.41023       18.4513       13.6063
O         10.2247       8.72165       11.799
O         1.16054       0.177778       0.427743
O         5.77341       14.5136       11.4097
O         10.612       20.39       16.7389
O         1.26595       9.90402       11.1452
O         14.6238       19.4243       1.78415
O         18.6177       6.90276       19.4002
O         8.00608       3.99259       11.6387
O         11.7144       17.7651       8.93188
O         5.64693       4.01899       7.72666
O         12.2769       11.3236       1.0666
O         14.7994       15.267       4.49717
O         7.54685       20.4023       15.0564
O         19.0464       3.56062       15.464
O         1.85419       3.08311       4.9258
O         6.76402       2.91968       1.09825
O         16.3496       7.03198       6.63757
O         20.185       2.84346       10.4675
O         5.31795       14.5776       17.0393
O         8.92194       19.626       4.51546
O         15.3972       17.2991       15.487
O         9.82274       9.48517       6.77666
O         8.53796       14.16       7.55741
O         11.849       4.36437       3.01443
O         0.223906       1.07709       17.7118
O         3.36593       15.6596       13.2545
O         8.72878       17.703       11.8627
O         2.68123       5.08271       8.75902
O         19.0865       20.3806       20.2019
O         10.4281       20.5277       8.40134
O         6.95181       18.141       6.32668
O         11.7763       13.2724       17.865
O         14.0906       13.6266       2.2741
O         18.3916       16.3411       7.19304
O         9.216       11.56       8.71219
O         20.5181       4.13424       13.1835
O         5.04075       6.03409       0.895073
O         17.4195       13.9126       11.3772
O         12.8009       14.0843       6.82175
O         19.4411       11.2035       3.9961
O         17.0826       18.5712       3.01719
O         3.72953       7.22404       10.3565
O         10.8111       11.3276       13.6832
O         14.8665       11.9789       12.2984
O         17.3127       10.7349       12.4399
O         17.9507       0.996007       13.4033
